.SUBCKT VDD_source VDD_port VDD_zero
V0 VDD_port VDD_zero PWL(
+0.0 0.89999813
+1e-11 0.89190298
+2e-11 0.89176983
+3e-11 0.89301193
+4e-11 0.89493388
+5e-11 0.8965261
+6e-11 0.89767933
+7e-11 0.89849031
+8e-11 0.89920145
+9e-11 0.89979434
+1e-10 0.90022504
+1.1e-10 0.90059036
+1.2e-10 0.9010666
+1.3e-10 0.90165246
+1.4e-10 0.90219563
+1.5e-10 0.90270466
+1.6e-10 0.90274197
+1.7e-10 0.90198487
+1.8e-10 0.90110797
+1.9e-10 0.8997072
+2e-10 0.89846218
+2.1e-10 0.89744121
+2.2e-10 0.89652967
+2.3e-10 0.89547706
+2.4e-10 0.8910929
+2.5e-10 0.88263774
+2.6e-10 0.87866235
+2.7e-10 0.8781746
+2.8e-10 0.87911654
+2.9e-10 0.88069654
+3e-10 0.88286579
+3.1e-10 0.88571966
+3.2e-10 0.88891423
+3.3e-10 0.89247632
+3.4e-10 0.89621663
+3.5e-10 0.89959222
+3.6e-10 0.90294075
+3.7e-10 0.90623111
+3.8e-10 0.90944934
+3.9e-10 0.91251725
+4e-10 0.91540498
+4.1e-10 0.91808742
+4.2e-10 0.92050743
+4.3e-10 0.9226048
+4.4e-10 0.92375392
+4.5e-10 0.92449355
+4.6e-10 0.92489374
+4.7e-10 0.92496985
+4.8e-10 0.92472941
+4.9e-10 0.92046696
+5e-10 0.90634733
+5.1e-10 0.90197414
+5.2e-10 0.89997768
+5.3e-10 0.89935553
+5.4e-10 0.89856857
+5.5e-10 0.89744264
+5.6e-10 0.89620286
+5.7e-10 0.89494771
+5.8e-10 0.89378005
+5.9e-10 0.89273715
+6e-10 0.89188427
+6.1e-10 0.89119649
+6.2e-10 0.89052939
+6.3e-10 0.88986415
+6.4e-10 0.88929963
+6.5e-10 0.88878232
+6.6e-10 0.88814306
+6.7e-10 0.88716698
+6.8e-10 0.88585985
+6.9e-10 0.88433516
+7e-10 0.88319379
+7.1e-10 0.88257033
+7.2e-10 0.88196635
+7.3e-10 0.88141364
+7.4e-10 0.87737662
+7.5e-10 0.86925709
+7.6e-10 0.86504149
+7.7e-10 0.86457843
+7.8e-10 0.86613399
+7.9e-10 0.86869967
+8e-10 0.87202013
+8.1e-10 0.87528068
+8.2e-10 0.87909049
+8.3e-10 0.88337421
+8.4e-10 0.88799536
+8.5e-10 0.89278269
+8.6e-10 0.89762652
+8.7e-10 0.90244097
+8.8e-10 0.90717351
+8.9e-10 0.9118098
+9e-10 0.91622609
+9.1e-10 0.92037618
+9.2e-10 0.92422205
+9.3e-10 0.92772788
+9.4e-10 0.93084794
+9.5e-10 0.93357682
+9.6e-10 0.93591684
+9.7e-10 0.93785566
+9.8e-10 0.93783128
+9.9e-10 0.93320924
+1e-09 0.91804737
+1.01e-09 0.91232067
+1.02e-09 0.91077995
+1.03e-09 0.91127509
+1.04e-09 0.90998679
+1.05e-09 0.90788656
+1.06e-09 0.90567082
+1.07e-09 0.90346044
+1.08e-09 0.90129966
+1.09e-09 0.89928728
+1.1e-09 0.89746892
+1.11e-09 0.89585459
+1.12e-09 0.89436531
+1.13e-09 0.89284438
+1.14e-09 0.8913734
+1.15e-09 0.88996255
+1.16e-09 0.8885169
+1.17e-09 0.88691539
+1.18e-09 0.88512611
+1.19e-09 0.88333756
+1.2e-09 0.88180965
+1.21e-09 0.88065875
+1.22e-09 0.87973613
+1.23e-09 0.87897623
+1.24e-09 0.87585872
+1.25e-09 0.8694272
+1.26e-09 0.86522877
+1.27e-09 0.8640644
+1.28e-09 0.86388928
+1.29e-09 0.8646788
+1.3e-09 0.86639845
+1.31e-09 0.86932236
+1.32e-09 0.87351394
+1.33e-09 0.87872595
+1.34e-09 0.88305777
+1.35e-09 0.88739324
+1.36e-09 0.89183921
+1.37e-09 0.89632738
+1.38e-09 0.90080786
+1.39e-09 0.9052301
+1.4e-09 0.90955395
+1.41e-09 0.91370368
+1.42e-09 0.91760755
+1.43e-09 0.92121559
+1.44e-09 0.92448294
+1.45e-09 0.92741805
+1.46e-09 0.93003488
+1.47e-09 0.93231308
+1.48e-09 0.93420184
+1.49e-09 0.9291597
+1.5e-09 0.91539866
+1.51e-09 0.90974647
+1.52e-09 0.90843344
+1.53e-09 0.90937978
+1.54e-09 0.91018003
+1.55e-09 0.90896362
+1.56e-09 0.90744847
+1.57e-09 0.90579224
+1.58e-09 0.90417063
+1.59e-09 0.90266979
+1.6e-09 0.90129912
+1.61e-09 0.90003872
+1.62e-09 0.8986389
+1.63e-09 0.8971588
+1.64e-09 0.89582157
+1.65e-09 0.89459461
+1.66e-09 0.89321923
+1.67e-09 0.89161873
+1.68e-09 0.8898707
+1.69e-09 0.88814628
+1.7e-09 0.88668346
+1.71e-09 0.88547069
+1.72e-09 0.88421965
+1.73e-09 0.88205427
+1.74e-09 0.8767491
+1.75e-09 0.86891699
+1.76e-09 0.86322594
+1.77e-09 0.86083847
+1.78e-09 0.86071503
+1.79e-09 0.86200118
+1.8e-09 0.86457765
+1.81e-09 0.86794323
+1.82e-09 0.87236702
+1.83e-09 0.87789774
+1.84e-09 0.88338655
+1.85e-09 0.88730365
+1.86e-09 0.89141363
+1.87e-09 0.89561212
+1.88e-09 0.89983249
+1.89e-09 0.90401572
+1.9e-09 0.90810782
+1.91e-09 0.91206861
+1.92e-09 0.91581267
+1.93e-09 0.91930252
+1.94e-09 0.92248976
+1.95e-09 0.92536283
+1.96e-09 0.92791742
+1.97e-09 0.9301343
+1.98e-09 0.93195993
+1.99e-09 0.92620999
+2e-09 0.91147751
+2.01e-09 0.90706933
+2.02e-09 0.90617645
+2.03e-09 0.90690547
+2.04e-09 0.90782893
+2.05e-09 0.90802807
+2.06e-09 0.90679789
+2.07e-09 0.9049868
+2.08e-09 0.90323484
+2.09e-09 0.9016006
+2.1e-09 0.90013397
+2.11e-09 0.89881504
+2.12e-09 0.89754295
+2.13e-09 0.89620787
+2.14e-09 0.89492536
+2.15e-09 0.89371741
+2.16e-09 0.89243132
+2.17e-09 0.89089227
+2.18e-09 0.8891902
+2.19e-09 0.88748306
+2.2e-09 0.885988
+2.21e-09 0.88482845
+2.22e-09 0.88392293
+2.23e-09 0.88299859
+2.24e-09 0.87881213
+2.25e-09 0.87008989
+2.26e-09 0.86562568
+2.27e-09 0.86449534
+2.28e-09 0.8651545
+2.29e-09 0.86693698
+2.3e-09 0.86944222
+2.31e-09 0.87261593
+2.32e-09 0.87641531
+2.33e-09 0.88072157
+2.34e-09 0.88537294
+2.35e-09 0.89014775
+2.36e-09 0.89490813
+2.37e-09 0.89958209
+2.38e-09 0.90413344
+2.39e-09 0.90853584
+2.4e-09 0.91276515
+2.41e-09 0.91674668
+2.42e-09 0.92044729
+2.43e-09 0.92382109
+2.44e-09 0.92683005
+2.45e-09 0.92948979
+2.46e-09 0.93182254
+2.47e-09 0.93267697
+2.48e-09 0.93288863
+2.49e-09 0.92876387
+2.5e-09 0.91443098
+2.51e-09 0.90894508
+2.52e-09 0.90803343
+2.53e-09 0.90743631
+2.54e-09 0.90665507
+2.55e-09 0.90546203
+2.56e-09 0.90409988
+2.57e-09 0.90269536
+2.58e-09 0.90134925
+2.59e-09 0.90011615
+2.6e-09 0.89893568
+2.61e-09 0.89780194
+2.62e-09 0.89646125
+2.63e-09 0.89507473
+2.64e-09 0.89376557
+2.65e-09 0.89260387
+2.66e-09 0.89132667
+2.67e-09 0.88984591
+2.68e-09 0.88824338
+2.69e-09 0.88662273
+2.7e-09 0.88535267
+2.71e-09 0.88436228
+2.72e-09 0.88338798
+2.73e-09 0.88246298
+2.74e-09 0.87872243
+2.75e-09 0.87026763
+2.76e-09 0.86590832
+2.77e-09 0.86537468
+2.78e-09 0.86599749
+2.79e-09 0.86753851
+2.8e-09 0.8698281
+2.81e-09 0.87274218
+2.82e-09 0.87626624
+2.83e-09 0.88032031
+2.84e-09 0.88469678
+2.85e-09 0.88921219
+2.86e-09 0.89374465
+2.87e-09 0.89821595
+2.88e-09 0.90259004
+2.89e-09 0.90684009
+2.9e-09 0.91096187
+2.91e-09 0.91486567
+2.92e-09 0.91851556
+2.93e-09 0.92188156
+2.94e-09 0.92492127
+2.95e-09 0.92762923
+2.96e-09 0.93000585
+2.97e-09 0.9319973
+2.98e-09 0.93230772
+2.99e-09 0.92775935
+3e-09 0.912893
+3.01e-09 0.90815073
+3.02e-09 0.90688539
+3.03e-09 0.90757257
+3.04e-09 0.90751886
+3.05e-09 0.90601224
+3.06e-09 0.90434867
+3.07e-09 0.90268594
+3.08e-09 0.90112001
+3.09e-09 0.89972693
+3.1e-09 0.89854568
+3.11e-09 0.89752352
+3.12e-09 0.89655411
+3.13e-09 0.89546394
+3.14e-09 0.89446956
+3.15e-09 0.89364439
+3.16e-09 0.89288771
+3.17e-09 0.89203101
+3.18e-09 0.89100283
+3.19e-09 0.89000368
+3.2e-09 0.88924813
+3.21e-09 0.88877279
+3.22e-09 0.8884508
+3.23e-09 0.88817608
+3.24e-09 0.88518327
+3.25e-09 0.87807
+3.26e-09 0.87417132
+3.27e-09 0.87370121
+3.28e-09 0.87479609
+3.29e-09 0.87623996
+3.3e-09 0.878308
+3.31e-09 0.88115036
+3.32e-09 0.88448203
+3.33e-09 0.8876695
+3.34e-09 0.89106208
+3.35e-09 0.89455074
+3.36e-09 0.89803922
+3.37e-09 0.90145904
+3.38e-09 0.90478635
+3.39e-09 0.90800703
+3.4e-09 0.91106552
+3.41e-09 0.91393417
+3.42e-09 0.91658634
+3.43e-09 0.9189862
+3.44e-09 0.92110246
+3.45e-09 0.92291462
+3.46e-09 0.92380601
+3.47e-09 0.92417318
+3.48e-09 0.92422992
+3.49e-09 0.92004126
+3.5e-09 0.9053039
+3.51e-09 0.90173692
+3.52e-09 0.90060323
+3.53e-09 0.90033913
+3.54e-09 0.89991313
+3.55e-09 0.89911163
+3.56e-09 0.89820576
+3.57e-09 0.8973158
+3.58e-09 0.89652824
+3.59e-09 0.89586759
+3.6e-09 0.89539504
+3.61e-09 0.89511257
+3.62e-09 0.89482379
+3.63e-09 0.89449787
+3.64e-09 0.89427525
+3.65e-09 0.89422184
+3.66e-09 0.89417911
+3.67e-09 0.89400029
+3.68e-09 0.89345515
+3.69e-09 0.89280671
+3.7e-09 0.89232099
+3.71e-09 0.8921544
+3.72e-09 0.8921175
+3.73e-09 0.89218706
+3.74e-09 0.88861167
+3.75e-09 0.88017797
+3.76e-09 0.87629569
+3.77e-09 0.87608498
+3.78e-09 0.87758678
+3.79e-09 0.87971491
+3.8e-09 0.88169581
+3.81e-09 0.88423306
+3.82e-09 0.88689935
+3.83e-09 0.88989961
+3.84e-09 0.89311016
+3.85e-09 0.89637977
+3.86e-09 0.89962679
+3.87e-09 0.90278029
+3.88e-09 0.90583575
+3.89e-09 0.90879101
+3.9e-09 0.91158903
+3.91e-09 0.91420972
+3.92e-09 0.91662967
+3.93e-09 0.91882658
+3.94e-09 0.92076534
+3.95e-09 0.92244869
+3.96e-09 0.92337132
+3.97e-09 0.92357248
+3.98e-09 0.92347866
+3.99e-09 0.91933948
+4e-09 0.9037779
+4.01e-09 0.90127623
+4.02e-09 0.89863932
+4.03e-09 0.89864242
+4.04e-09 0.89898026
+4.05e-09 0.89818841
+4.06e-09 0.89692169
+4.07e-09 0.89578497
+4.08e-09 0.89480662
+4.09e-09 0.8939153
+4.1e-09 0.89313066
+4.11e-09 0.89246058
+4.12e-09 0.89179999
+4.13e-09 0.89104694
+4.14e-09 0.89041346
+4.15e-09 0.8898952
+4.16e-09 0.88936299
+4.17e-09 0.88854682
+4.18e-09 0.88740468
+4.19e-09 0.88623947
+4.2e-09 0.88521862
+4.21e-09 0.8841815
+4.22e-09 0.88277227
+4.23e-09 0.88109565
+4.24e-09 0.87724406
+4.25e-09 0.87120724
+4.26e-09 0.86708272
+4.27e-09 0.8656829
+4.28e-09 0.86620754
+4.29e-09 0.86800218
+4.3e-09 0.87081081
+4.31e-09 0.87480754
+4.32e-09 0.87984985
+4.33e-09 0.8854149
+4.34e-09 0.8903026
+4.35e-09 0.89449584
+4.36e-09 0.89875704
+4.37e-09 0.90301085
+4.38e-09 0.9072172
+4.39e-09 0.91133851
+4.4e-09 0.91527349
+4.41e-09 0.91897959
+4.42e-09 0.92241603
+4.43e-09 0.92553347
+4.44e-09 0.92828959
+4.45e-09 0.93069631
+4.46e-09 0.93277222
+4.47e-09 0.93439865
+4.48e-09 0.93556619
+4.49e-09 0.92992926
+4.5e-09 0.9156217
+4.51e-09 0.90956259
+4.52e-09 0.90800601
+4.53e-09 0.90862548
+4.54e-09 0.90799522
+4.55e-09 0.90634048
+4.56e-09 0.90451539
+4.57e-09 0.90268064
+4.58e-09 0.90091258
+4.59e-09 0.89928371
+4.6e-09 0.89782202
+4.61e-09 0.89644641
+4.62e-09 0.894979
+4.63e-09 0.89344555
+4.64e-09 0.89196831
+4.65e-09 0.89045823
+4.66e-09 0.88888389
+4.67e-09 0.88731945
+4.68e-09 0.88571209
+4.69e-09 0.88414341
+4.7e-09 0.8829326
+4.71e-09 0.88204825
+4.72e-09 0.88093287
+4.73e-09 0.8787815
+4.74e-09 0.8732754
+4.75e-09 0.86538345
+4.76e-09 0.85972738
+4.77e-09 0.85733902
+4.78e-09 0.85725403
+4.79e-09 0.85870945
+4.8e-09 0.86162233
+4.81e-09 0.86565048
+4.82e-09 0.87058485
+4.83e-09 0.87651074
+4.84e-09 0.88269222
+4.85e-09 0.88673705
+4.86e-09 0.89092064
+4.87e-09 0.89520144
+4.88e-09 0.89951837
+4.89e-09 0.9038223
+4.9e-09 0.90805441
+4.91e-09 0.91216689
+4.92e-09 0.91607273
+4.93e-09 0.91972977
+4.94e-09 0.9230817
+4.95e-09 0.92611271
+4.96e-09 0.92881465
+4.97e-09 0.93116593
+4.98e-09 0.93311131
+4.99e-09 0.9275136
+5e-09 0.91299337
+5.01e-09 0.90840334
+5.02e-09 0.90761238
+5.03e-09 0.90833652
+5.04e-09 0.90932983
+5.05e-09 0.90965402
+5.06e-09 0.9094978
+5.07e-09 0.90805435
+5.08e-09 0.90622824
+5.09e-09 0.9045049
+5.1e-09 0.90293068
+5.11e-09 0.90153575
+5.12e-09 0.90024972
+5.13e-09 0.89896446
+5.14e-09 0.89777297
+5.15e-09 0.89665216
+5.16e-09 0.89549863
+5.17e-09 0.89429265
+5.18e-09 0.89309931
+5.19e-09 0.89202422
+5.2e-09 0.89120138
+5.21e-09 0.89061546
+5.22e-09 0.8901009
+5.23e-09 0.88951516
+5.24e-09 0.88600606
+5.25e-09 0.87906355
+5.26e-09 0.87473387
+5.27e-09 0.87384421
+5.28e-09 0.87469852
+5.29e-09 0.87631238
+5.3e-09 0.87833989
+5.31e-09 0.88069165
+5.32e-09 0.88328111
+5.33e-09 0.88610381
+5.34e-09 0.88911152
+5.35e-09 0.89220375
+5.36e-09 0.8953197
+5.37e-09 0.89840508
+5.38e-09 0.90143865
+5.39e-09 0.90439492
+5.4e-09 0.90725398
+5.41e-09 0.90996706
+5.42e-09 0.9125033
+5.43e-09 0.91482693
+5.44e-09 0.91690755
+5.45e-09 0.91871923
+5.46e-09 0.9202947
+5.47e-09 0.9214713
+5.48e-09 0.92174906
+5.49e-09 0.9167037
+5.5e-09 0.90217876
+5.51e-09 0.90008116
+5.52e-09 0.89805305
+5.53e-09 0.89878893
+5.54e-09 0.89934886
+5.55e-09 0.89893216
+5.56e-09 0.89837569
+5.57e-09 0.89779103
+5.58e-09 0.89723867
+5.59e-09 0.89678752
+5.6e-09 0.89652246
+5.61e-09 0.89645666
+5.62e-09 0.89639175
+5.63e-09 0.89619654
+5.64e-09 0.89592201
+5.65e-09 0.89564347
+5.66e-09 0.89530534
+5.67e-09 0.89486247
+5.68e-09 0.89439267
+5.69e-09 0.89394695
+5.7e-09 0.89371169
+5.71e-09 0.89372772
+5.72e-09 0.89380944
+5.73e-09 0.89381808
+5.74e-09 0.89040732
+5.75e-09 0.88227421
+5.76e-09 0.87854701
+5.77e-09 0.87840444
+5.78e-09 0.87997133
+5.79e-09 0.88195473
+5.8e-09 0.88409805
+5.81e-09 0.88655514
+5.82e-09 0.88926864
+5.83e-09 0.89218557
+5.84e-09 0.89524305
+5.85e-09 0.89832234
+5.86e-09 0.90135241
+5.87e-09 0.90428382
+5.88e-09 0.90712476
+5.89e-09 0.90984392
+5.9e-09 0.91239947
+5.91e-09 0.91477203
+5.92e-09 0.91694152
+5.93e-09 0.91889024
+5.94e-09 0.92058372
+5.95e-09 0.92182237
+5.96e-09 0.92212552
+5.97e-09 0.92215437
+5.98e-09 0.9219141
+5.99e-09 0.91783613
+6e-09 0.90278679
+6.01e-09 0.90034193
+6.02e-09 0.89799106
+6.03e-09 0.89804739
+6.04e-09 0.89848
+6.05e-09 0.89785236
+6.06e-09 0.89699477
+6.07e-09 0.89623648
+6.08e-09 0.89554977
+6.09e-09 0.89493674
+6.1e-09 0.89445037
+6.11e-09 0.89407551
+6.12e-09 0.89366072
+6.13e-09 0.89315957
+6.14e-09 0.89270467
+6.15e-09 0.89237094
+6.16e-09 0.8920964
+6.17e-09 0.89171153
+6.18e-09 0.89126551
+6.19e-09 0.89093173
+6.2e-09 0.89086205
+6.21e-09 0.89118612
+6.22e-09 0.89173508
+6.23e-09 0.89224619
+6.24e-09 0.88837957
+6.25e-09 0.87958038
+6.26e-09 0.87545675
+6.27e-09 0.87525588
+6.28e-09 0.87678272
+6.29e-09 0.87909997
+6.3e-09 0.88183075
+6.31e-09 0.88482881
+6.32e-09 0.88797647
+6.33e-09 0.89122391
+6.34e-09 0.89454389
+6.35e-09 0.89787966
+6.36e-09 0.90117675
+6.37e-09 0.90437216
+6.38e-09 0.90745169
+6.39e-09 0.91038752
+6.4e-09 0.91313946
+6.41e-09 0.91568851
+6.42e-09 0.91801167
+6.43e-09 0.92007685
+6.44e-09 0.92181814
+6.45e-09 0.92266804
+6.46e-09 0.92301375
+6.47e-09 0.92307442
+6.48e-09 0.92285383
+6.49e-09 0.91847515
+6.5e-09 0.90424562
+6.51e-09 0.90097857
+6.52e-09 0.89988893
+6.53e-09 0.89966345
+6.54e-09 0.89946163
+6.55e-09 0.89898777
+6.56e-09 0.89846128
+6.57e-09 0.89797068
+6.58e-09 0.8975237
+6.59e-09 0.8971411
+6.6e-09 0.8967995
+6.61e-09 0.89646804
+6.62e-09 0.89604264
+6.63e-09 0.89555323
+6.64e-09 0.89513862
+6.65e-09 0.89483005
+6.66e-09 0.8945933
+6.67e-09 0.89439738
+6.68e-09 0.89409572
+6.69e-09 0.8936913
+6.7e-09 0.89334685
+6.71e-09 0.89314759
+6.72e-09 0.89312923
+6.73e-09 0.8931191
+6.74e-09 0.88893628
+6.75e-09 0.88026607
+6.76e-09 0.87624305
+6.77e-09 0.87591064
+6.78e-09 0.87734455
+6.79e-09 0.87932146
+6.8e-09 0.88130796
+6.81e-09 0.88381213
+6.82e-09 0.88658673
+6.83e-09 0.88936007
+6.84e-09 0.89225417
+6.85e-09 0.89520264
+6.86e-09 0.89814001
+6.87e-09 0.90101236
+6.88e-09 0.90380579
+6.89e-09 0.90651226
+6.9e-09 0.90910506
+6.91e-09 0.91154534
+6.92e-09 0.91381115
+6.93e-09 0.91588265
+6.94e-09 0.91768122
+6.95e-09 0.91922426
+6.96e-09 0.92054015
+6.97e-09 0.92084068
+6.98e-09 0.92087775
+6.99e-09 0.91632432
+7e-09 0.90103149
+7.01e-09 0.89905483
+7.02e-09 0.89680874
+7.03e-09 0.89715523
+7.04e-09 0.89783633
+7.05e-09 0.89775658
+7.06e-09 0.89676476
+7.07e-09 0.89585567
+7.08e-09 0.89506334
+7.09e-09 0.89443457
+7.1e-09 0.89396727
+7.11e-09 0.89359415
+7.12e-09 0.893255
+7.13e-09 0.8929013
+7.14e-09 0.89253843
+7.15e-09 0.89203733
+7.16e-09 0.89126468
+7.17e-09 0.89018017
+7.18e-09 0.88894439
+7.19e-09 0.88788319
+7.2e-09 0.88721848
+7.21e-09 0.88687903
+7.22e-09 0.88672823
+7.23e-09 0.88644123
+7.24e-09 0.88268608
+7.25e-09 0.87516916
+7.26e-09 0.87168747
+7.27e-09 0.87180167
+7.28e-09 0.87349415
+7.29e-09 0.87589723
+7.3e-09 0.87863779
+7.31e-09 0.88168395
+7.32e-09 0.88514298
+7.33e-09 0.88899624
+7.34e-09 0.89307731
+7.35e-09 0.89722943
+7.36e-09 0.90136909
+7.37e-09 0.90542692
+7.38e-09 0.90937954
+7.39e-09 0.91316563
+7.4e-09 0.91672635
+7.41e-09 0.92003089
+7.42e-09 0.92305142
+7.43e-09 0.92574835
+7.44e-09 0.92808819
+7.45e-09 0.9300912
+7.46e-09 0.93098843
+7.47e-09 0.93104386
+7.48e-09 0.93072587
+7.49e-09 0.92624444
+7.5e-09 0.91180623
+7.51e-09 0.90610677
+7.52e-09 0.90458745
+7.53e-09 0.90373594
+7.54e-09 0.90275621
+7.55e-09 0.90131515
+7.56e-09 0.89971501
+7.57e-09 0.89807355
+7.58e-09 0.89653677
+7.59e-09 0.89515948
+7.6e-09 0.8939929
+7.61e-09 0.89298749
+7.62e-09 0.8919661
+7.63e-09 0.89094383
+7.64e-09 0.89002836
+7.65e-09 0.88915747
+7.66e-09 0.88804913
+7.67e-09 0.88670677
+7.68e-09 0.88516533
+7.69e-09 0.88355756
+7.7e-09 0.88223982
+7.71e-09 0.8813476
+7.72e-09 0.88065559
+7.73e-09 0.87994093
+7.74e-09 0.87615532
+7.75e-09 0.86830044
+7.76e-09 0.86406869
+7.77e-09 0.86360836
+7.78e-09 0.86516541
+7.79e-09 0.86773521
+7.8e-09 0.8710342
+7.81e-09 0.87433225
+7.82e-09 0.87790781
+7.83e-09 0.88198358
+7.84e-09 0.88640726
+7.85e-09 0.89101613
+7.86e-09 0.89570588
+7.87e-09 0.90037423
+7.88e-09 0.90496641
+7.89e-09 0.9094429
+7.9e-09 0.91374767
+7.91e-09 0.91780305
+7.92e-09 0.92157543
+7.93e-09 0.92503136
+7.94e-09 0.92812604
+7.95e-09 0.9308539
+7.96e-09 0.93321645
+7.97e-09 0.93520069
+7.98e-09 0.93604046
+7.99e-09 0.93072623
+8e-09 0.91572332
+8.01e-09 0.91040802
+8.02e-09 0.90937519
+8.03e-09 0.90995115
+8.04e-09 0.90932041
+8.05e-09 0.90741879
+8.06e-09 0.90539134
+8.07e-09 0.90335572
+8.08e-09 0.90136254
+8.09e-09 0.89950681
+8.1e-09 0.89784801
+8.11e-09 0.89638573
+8.12e-09 0.89503908
+8.13e-09 0.89365059
+8.14e-09 0.89229792
+8.15e-09 0.8909865
+8.16e-09 0.88961923
+8.17e-09 0.8880744
+8.18e-09 0.88630134
+8.19e-09 0.88452238
+8.2e-09 0.88298875
+8.21e-09 0.88181186
+8.22e-09 0.88088822
+8.23e-09 0.88007379
+8.24e-09 0.8768785
+8.25e-09 0.86933845
+8.26e-09 0.86423564
+8.27e-09 0.86289263
+8.28e-09 0.86331123
+8.29e-09 0.86484253
+8.3e-09 0.86709774
+8.31e-09 0.87004471
+8.32e-09 0.87368953
+8.33e-09 0.87789619
+8.34e-09 0.88246477
+8.35e-09 0.88720208
+8.36e-09 0.89199543
+8.37e-09 0.89676225
+8.38e-09 0.90146136
+8.39e-09 0.90605319
+8.4e-09 0.91051447
+8.41e-09 0.91475409
+8.42e-09 0.91872418
+8.43e-09 0.92237896
+8.44e-09 0.92567652
+8.45e-09 0.92862773
+8.46e-09 0.93124837
+8.47e-09 0.9335199
+8.48e-09 0.93536687
+8.49e-09 0.93024218
+8.5e-09 0.91615832
+8.51e-09 0.91073704
+8.52e-09 0.90988487
+8.53e-09 0.91055763
+8.54e-09 0.9098509
+8.55e-09 0.90864581
+8.56e-09 0.90713978
+8.57e-09 0.90548044
+8.58e-09 0.90384549
+8.59e-09 0.9023279
+8.6e-09 0.90093857
+8.61e-09 0.89966476
+8.62e-09 0.8982203
+8.63e-09 0.89673269
+8.64e-09 0.89538401
+8.65e-09 0.89414346
+8.66e-09 0.89278257
+8.67e-09 0.89118177
+8.68e-09 0.88943964
+8.69e-09 0.88768631
+8.7e-09 0.88617039
+8.71e-09 0.88486558
+8.72e-09 0.88349563
+8.73e-09 0.88131326
+8.74e-09 0.8761493
+8.75e-09 0.86859697
+8.76e-09 0.86321789
+8.77e-09 0.86104584
+8.78e-09 0.86097419
+8.79e-09 0.86211801
+8.8e-09 0.86405718
+8.81e-09 0.86700797
+8.82e-09 0.87131268
+8.83e-09 0.87678063
+8.84e-09 0.88114041
+8.85e-09 0.8855443
+8.86e-09 0.89009219
+8.87e-09 0.89468175
+8.88e-09 0.89925474
+8.89e-09 0.90376079
+8.9e-09 0.90815032
+8.91e-09 0.91239321
+8.92e-09 0.91639721
+8.93e-09 0.92012841
+8.94e-09 0.92353958
+8.95e-09 0.92661935
+8.96e-09 0.92936337
+8.97e-09 0.93175197
+8.98e-09 0.93373138
+8.99e-09 0.92811292
+9e-09 0.91349822
+9.01e-09 0.90887487
+9.02e-09 0.90781516
+9.03e-09 0.90863943
+9.04e-09 0.90960711
+9.05e-09 0.9097718
+9.06e-09 0.90795028
+9.07e-09 0.90608907
+9.08e-09 0.90427035
+9.09e-09 0.90256393
+9.1e-09 0.90102023
+9.11e-09 0.89962083
+9.12e-09 0.89825934
+9.13e-09 0.89684403
+9.14e-09 0.89547592
+9.15e-09 0.89418209
+9.16e-09 0.89279991
+9.17e-09 0.89114982
+9.18e-09 0.88933164
+9.19e-09 0.88752353
+9.2e-09 0.88595074
+9.21e-09 0.88474143
+9.22e-09 0.88381273
+9.23e-09 0.88289726
+9.24e-09 0.87949187
+9.25e-09 0.87156951
+9.26e-09 0.86725008
+9.27e-09 0.86664265
+9.28e-09 0.86776686
+9.29e-09 0.86982787
+9.3e-09 0.87236345
+9.31e-09 0.87530148
+9.32e-09 0.87870699
+9.33e-09 0.8825472
+9.34e-09 0.88671541
+9.35e-09 0.89105827
+9.36e-09 0.8954401
+9.37e-09 0.89977664
+9.38e-09 0.9040246
+9.39e-09 0.90814871
+9.4e-09 0.91211879
+9.41e-09 0.91586095
+9.42e-09 0.91934383
+9.43e-09 0.92252135
+9.44e-09 0.92535543
+9.45e-09 0.92786163
+9.46e-09 0.93006223
+9.47e-09 0.93104863
+9.48e-09 0.93125248
+9.49e-09 0.92718285
+9.5e-09 0.91265363
+9.51e-09 0.90735376
+9.52e-09 0.90662026
+9.53e-09 0.9060446
+9.54e-09 0.90531754
+9.55e-09 0.90419871
+9.56e-09 0.9029246
+9.57e-09 0.90161932
+9.58e-09 0.90038365
+9.59e-09 0.89927864
+9.6e-09 0.89824116
+9.61e-09 0.89723611
+9.62e-09 0.8960492
+9.63e-09 0.89481813
+9.64e-09 0.89366233
+9.65e-09 0.89264584
+9.66e-09 0.89154798
+9.67e-09 0.89019501
+9.68e-09 0.88873029
+9.69e-09 0.88726097
+9.7e-09 0.88615578
+9.71e-09 0.88534647
+9.72e-09 0.88456422
+9.73e-09 0.88383597
+9.74e-09 0.88043267
+9.75e-09 0.87217563
+9.76e-09 0.86806619
+9.77e-09 0.86778492
+9.78e-09 0.86934906
+9.79e-09 0.87172544
+9.8e-09 0.87413013
+9.81e-09 0.87698722
+9.82e-09 0.88012207
+9.83e-09 0.88372016
+9.84e-09 0.88766551
+9.85e-09 0.89178246
+9.86e-09 0.89595222
+9.87e-09 0.9000718
+9.88e-09 0.90410298
+9.89e-09 0.90802026
+9.9e-09 0.91180158
+9.91e-09 0.91537142
+9.92e-09 0.91869688
+9.93e-09 0.92174935
+9.94e-09 0.92448795
+9.95e-09 0.92690915
+9.96e-09 0.9290154
+9.97e-09 0.93048644
+9.98e-09 0.93060762
+9.99e-09 0.9303695
+)
.ENDS
